Version 4
SHEET 1 3364 1144
WIRE 1104 -384 976 -384
WIRE 1312 -384 1168 -384
WIRE 1392 -384 1312 -384
WIRE 1472 -384 1392 -384
WIRE 1808 -384 1760 -384
WIRE 1904 -384 1808 -384
WIRE 2016 -384 1904 -384
WIRE 976 -352 976 -384
WIRE 1808 -288 1808 -384
WIRE 1808 -288 1760 -288
WIRE 1616 -176 1616 -224
WIRE 1120 -96 1024 -96
WIRE 1024 -32 1024 -96
WIRE 1040 -32 1024 -32
WIRE 1120 -16 1120 -96
WIRE 1120 -16 1104 -16
WIRE 1152 -16 1120 -16
WIRE 1040 0 960 0
WIRE 1360 96 1344 96
WIRE 1472 96 1440 96
WIRE 1120 192 944 192
WIRE 1152 192 1120 192
WIRE 1248 192 1216 192
WIRE 1344 192 1344 96
WIRE 1344 192 1328 192
WIRE 1360 192 1344 192
WIRE 1472 208 1472 96
WIRE 1472 208 1424 208
WIRE 1360 224 1328 224
WIRE 1120 240 1120 192
WIRE 944 256 944 192
WIRE 944 384 944 336
WIRE 1024 384 944 384
WIRE 1120 384 1120 320
WIRE 1120 384 1024 384
WIRE 1024 400 1024 384
WIRE 1360 512 1344 512
WIRE 1472 512 1440 512
WIRE 1088 528 944 528
WIRE 1152 608 1088 608
WIRE 1248 608 1216 608
WIRE 1344 608 1344 512
WIRE 1344 608 1328 608
WIRE 1360 608 1344 608
WIRE 1472 624 1472 512
WIRE 1472 624 1424 624
WIRE 1360 640 1328 640
WIRE 944 672 944 528
WIRE 944 800 944 752
WIRE 1024 800 944 800
WIRE 1088 800 1088 688
WIRE 1088 800 1024 800
WIRE 1024 816 1024 800
FLAG 1024 400 0
FLAG 1072 -48 Vdd
FLAG 1072 16 0
FLAG 960 -80 Vdd
FLAG 960 80 0
FLAG 1152 -16 Vgnd
FLAG 1392 240 0
FLAG 1392 176 Vdd
FLAG 1248 224 Vgnd
FLAG 2016 -384 Vdd
FLAG 1392 -320 0
FLAG 1904 -320 0
FLAG 2016 -304 0
FLAG 1312 -320 0
FLAG 1616 -176 0
FLAG 1024 816 0
FLAG 1392 656 0
FLAG 1392 592 Vdd
FLAG 1248 640 Vgnd
FLAG 976 -272 0
SYMBOL res 1104 224 R0
SYMATTR InstName R1
SYMATTR Value 75
SYMBOL res 944 -96 R0
SYMATTR InstName R2
SYMATTR Value 100k
SYMBOL res 944 -16 R0
SYMATTR InstName R3
SYMATTR Value 100k
SYMBOL Opamps\\opamp2 1072 -80 R0
SYMATTR InstName U1
SYMATTR Value OPA344
SYMBOL Opamps\\opamp2 1392 144 R0
WINDOW 3 44 110 Left 0
SYMATTR Value OPA344
SYMATTR InstName U2
SYMBOL res 1344 208 R90
WINDOW 0 66 56 VBottom 0
WINDOW 3 69 56 VTop 0
SYMATTR InstName R4
SYMATTR Value 68k
SYMBOL res 1344 112 R270
WINDOW 0 65 65 VTop 0
WINDOW 3 63 64 VBottom 0
SYMATTR InstName R5
SYMATTR Value 120k
SYMBOL res 1232 208 R270
WINDOW 0 66 57 VTop 0
WINDOW 3 63 54 VBottom 0
SYMATTR InstName R6
SYMATTR Value 100k
SYMBOL cap 1888 -384 R0
WINDOW 0 43 35 Left 0
WINDOW 3 44 64 Left 0
SYMATTR InstName C1
SYMATTR Value 10
SYMATTR SpiceLine V=15 Rser=2.9
SYMBOL cap 1376 -384 R0
WINDOW 0 24 11 Left 0
WINDOW 3 24 51 Left 0
SYMATTR InstName C3
SYMATTR Value 10
SYMATTR SpiceLine Rser=2.9
SYMBOL res 2000 -400 R0
SYMATTR InstName R7
SYMATTR Value R=limit(10,V(Vdd)/0.2,1000)
SYMBOL cap 1296 -384 R0
WINDOW 0 26 15 Left 0
WINDOW 3 24 49 Left 0
SYMATTR InstName C4
SYMATTR Value 470
SYMBOL cap 1152 208 R270
WINDOW 0 46 33 VTop 0
WINDOW 3 59 61 VBottom 0
SYMATTR InstName C5
SYMATTR Value 1
SYMBOL PowerProducts\\LT1129-3.3 1616 -336 R0
SYMATTR InstName U3
SYMBOL diode 1104 -368 R270
WINDOW 0 32 32 VTop 0
WINDOW 3 0 32 VBottom 0
SYMATTR InstName D1
SYMATTR Value DI_1N4001
SYMBOL Opamps\\opamp2 1392 560 R0
WINDOW 3 44 110 Left 0
SYMATTR Value OPA344
SYMATTR InstName U4
SYMBOL res 1344 624 R90
WINDOW 0 66 56 VBottom 0
WINDOW 3 69 56 VTop 0
SYMATTR InstName R9
SYMATTR Value 68k
SYMBOL res 1344 528 R270
WINDOW 0 65 65 VTop 0
WINDOW 3 63 64 VBottom 0
SYMATTR InstName R10
SYMATTR Value 1000k
SYMBOL res 1232 624 R270
WINDOW 0 66 57 VTop 0
WINDOW 3 63 54 VBottom 0
SYMATTR InstName R11
SYMATTR Value 1000k
SYMBOL cap 1152 624 R270
WINDOW 0 46 33 VTop 0
WINDOW 3 59 61 VBottom 0
SYMATTR InstName C2
SYMATTR Value 1
SYMBOL res 1072 592 R0
SYMATTR InstName R12
SYMATTR Value 2k
SYMBOL res 1072 512 R0
SYMATTR InstName R8
SYMATTR Value 180k
SYMBOL voltage 976 -368 R0
WINDOW 123 0 0 Left 0
WINDOW 39 24 44 Left 0
SYMATTR InstName V2
SYMATTR Value SINE(0 8.4 60)
SYMATTR SpiceLine Rser=7
TEXT 912 1080 Left 0 !.tran 0 .1 0 startup
TEXT 904 1128 Left 0 !.INCLUDE OPA344.sub
TEXT 912 1048 Left 0 !.include diodes.lib
